/*--------------------------------*- C++ -*----------------------------------*\
| =========                 |                                                 |
| \\      /  F ield         | OpenFOAM: The Open Source CFD Toolbox           |
|  \\    /   O peration     | Version:  2112                                  |
|   \\  /    A nd           | Website:  www.openfoam.com                      |
|    \\/     M anipulation  |                                                 |
\*---------------------------------------------------------------------------*/
FoamFile
{
    version     2.0;
    format      ascii;
    arch        "LSB;label=32;scalar=64";
    class       volScalarField;
    location    "0";
    object      alphat;
}
// * * * * * * * * * * * * * * * * * * * * * * * * * * * * * * * * * * * * * //

dimensions      [0 2 -1 0 0 0 0];

internalField   uniform 0;

boundaryField
{
    symmetry
    {
        type            symmetry;
    }
    wall_TOP
    {
        type            alphatJayatillekeWallFunction;
        Prt             0.85;
        value           uniform 0;
    }
    wall_IN
    {
        type            alphatJayatillekeWallFunction;
        Prt             0.85;
        value           uniform 0;
    }
    wall_EXT
    {
        type            alphatJayatillekeWallFunction;
        Prt             0.85;
        value           uniform 0;
    }
    wall_DOWN
    {
        type            alphatJayatillekeWallFunction;
        Prt             0.85;
        value           uniform 0;
    }
}


// ************************************************************************* //
